# hf/sto-3g

catechol_anatase101

0 1
1 O 4.781883402 6.115463744 4.502169853
2 O 4.777679760 9.024336096 4.505765888
3 C 5.167360464 6.857582912 3.478076656
4 C 5.165897883 8.285454320 3.480562804
5 C 5.582723274 6.203781008 2.315647082
6 C 5.581178870 8.947485856 2.321729266
7 C 5.984973994 6.886492520 1.185981387
8 C 5.985229690 8.271506304 1.188689512
9 H 5.574213711 5.115033976 2.347123492
10 H 5.568077007 10.037049800 2.356668524
11 H 6.305678145 6.333443096 0.306417741
12 H 6.306925941 8.826507240 0.311501026
13 Ti 2.852350247 1.890833592 9.815312304
14 Ti 2.852350247 5.672833592 9.815312304
15 Ti 2.852350247 9.454833592 9.815312304
16 Ti 2.852350247 13.236833592 9.815312304
17 Ti 4.256049692 1.873723824 6.471643024
18 Ti 4.288338983 5.710396416 6.274837772
19 Ti 4.288932198 9.425621424 6.277590293
20 Ti 4.261235207 13.256136920 6.478613117
21 Ti 7.965339514 0.000000000 9.815134722
22 Ti 5.058812398 0.000000000 10.693455294
23 Ti 7.965339514 3.782000000 9.815134722
24 Ti 5.058812398 3.782000000 10.693455294
25 Ti 7.965339514 7.564000000 9.815134722
26 Ti 5.058812398 7.564000000 10.693455294
27 Ti 7.965339514 11.346000000 9.815134722
28 Ti 5.058812398 11.346000000 10.693455294
29 Ti 6.408539532 0.017140024 7.188053207
30 Ti 6.427256479 3.785706360 7.193203085
31 Ti 6.425845037 7.564166408 7.237687376
32 Ti 6.427808782 11.346181536 7.199462851
33 Ti 9.388205931 11.342006208 6.514506879
34 Ti 9.368680984 7.561594648 6.488668698
35 Ti 9.379205432 3.786598912 6.510977437
36 Ti 9.385004617 0.024114032 6.522409278
37 Ti 10.171934627 1.890833592 10.692944746
38 Ti 10.171934627 5.672833592 10.692944746
39 Ti 10.171934627 9.454833592 10.692944746
40 Ti 10.171934627 13.236833592 10.692944746
41 Ti 1.327767961 1.879306056 7.249074822
42 Ti 1.363330161 5.674573312 7.259996115
43 Ti 1.365263222 9.449084952 7.259241391
44 Ti 1.316773033 13.252082616 7.243303407
45 O 3.182914036 1.890833592 7.911810846
46 O 3.220971828 0.000000000 9.962017234
47 O 4.691090867 1.890833592 10.547105528
48 O 3.182914036 5.672833592 7.911810846
49 O 3.220971828 3.782000000 9.962017234
50 O 4.691090867 5.672833592 10.547105528
51 O 3.182914036 9.454833592 7.911810846
52 O 3.220971828 7.564000000 9.962017234
53 O 4.691090867 9.454833592 10.547105528
54 O 3.182914036 13.236833592 7.911810846
55 O 3.220971828 11.346000000 9.962017234
56 O 4.691090867 13.236833592 10.547105528
57 O 2.412103102 1.890833592 5.569593057
58 O 4.644728068 0.005673000 6.226557666
59 O 6.196864155 1.908140024 6.900525751
60 O 2.412103102 5.672833592 5.569593057
61 O 4.662401775 3.781818464 6.263072965
62 O 6.161557651 5.678597360 6.973689535
63 O 2.412103102 9.454833592 5.569593057
64 O 4.579617638 7.567373544 6.683231977
65 O 6.168645544 9.458645848 6.966319882
66 O 2.412103102 13.236833592 5.569593057
67 O 4.661604004 11.351340184 6.263694502
68 O 6.214875381 13.225896048 6.860702988
69 O 6.126609122 0.000000000 9.083341498
70 O 6.897553018 0.000000000 11.425248518
71 O 8.333961095 1.890833592 9.961839652
72 O 6.126609122 3.782000000 9.083341498
73 O 6.897553018 3.782000000 11.425248518
74 O 8.333961095 5.672833592 9.961839652
75 O 6.126609122 7.564000000 9.083341498
76 O 6.897553018 7.564000000 11.425248518
77 O 8.333961095 9.454833592 9.961839652
78 O 6.126609122 11.346000000 9.083341498
79 O 6.897553018 11.346000000 11.425248518
80 O 8.333961095 13.236833592 9.961839652
81 O 8.296026036 0.000000000 7.911300298
82 O 8.296026036 3.782000000 7.911300298
83 O 8.296026036 7.564000000 7.911300298
84 O 8.296026036 11.346000000 7.911300298
85 O 9.778459394 9.455166408 6.465849411
86 O 9.778459394 5.673166408 6.465849411
87 O 9.778459394 1.891166408 6.465849411
88 O 9.778459394 13.236833592 6.465849411
89 O 9.804202867 3.781667184 10.546594980
90 O 9.804202867 7.563667184 10.546594980
91 O 9.804202867 11.345667184 10.546594980
92 O 9.804202867 0.000000000 10.546594980
93 O 1.034750573 3.786341736 6.987429943
94 O 1.008004771 7.563319240 6.994311245
95 O 1.039751987 11.340780840 6.990049277
96 O 1.069791153 0.003721488 7.012113841
97 O 1.011891350 1.890833592 9.082853147
98 O 1.011891350 5.672833592 9.082853147
99 O 1.011891350 9.454833592 9.082853147
100 O 1.011891350 13.236833592 9.082853147
101 O 7.764505647 14.892426784 5.439181276
102 O 7.724238641 3.961735768 5.475474597
103 O 7.708416173 7.561640032 5.461046059
104 O 7.745829612 11.240693992 5.435096890
105 O 1.782057930 1.890833592 11.424049840
106 O 1.782057930 5.672833592 11.424049840
107 O 1.782057930 9.454833592 11.424049840
108 O 1.782057930 13.236833592 11.424049840
109 H 2.269271316 2.710498888 5.056381077
110 H 2.277146753 6.031624368 4.679019327
111 H 2.290821375 9.050915992 4.696511154
112 H 2.273106756 12.409286608 5.068345664
113 H 7.573776887 13.994685880 5.097779881
114 H 7.504248031 4.809342480 5.040309906
115 H 7.298310472 7.572955776 4.571160460
116 H 7.515733895 10.423751736 4.951629895
117 H 2.082234806 1.886204424 12.362992467
118 H 2.075463976 5.736915800 12.366655096
119 H 2.044299748 9.315262664 12.372248929
120 H 2.066105503 13.163523304 12.365700592
121 H 7.216242284 0.033523648 12.358108962
122 H 7.202884725 3.810652432 12.363369829
123 H 7.202199460 7.548917384 12.365389824
124 H 7.186734966 11.324760288 12.366055756
Tv 10.227840000 0.000000000 0.000000000
Tv 0.000000000 15.128000000 0.000000000
Tv 0.000000000 0.000000000 22.197750000
